/*--------------------------------*- C++ -*----------------------------------*\
  =========                 |
  \\      /  F ield         | OpenFOAM: The Open Source CFD Toolbox
   \\    /   O peration     | Website:  https://openfoam.org
    \\  /    A nd           | Version:  10
     \\/     M anipulation  |

Generated by carbonfly
  - Author: Qirui Huang
  - Website: https://github.com/hqrrr/carbonfly
\*---------------------------------------------------------------------------*/

FoamFile
{
    version     2.0;
    format      ascii;
    class       dictionary;
    location    "system";
    object      fvSolution;
}
// * * * * * * * * * * * * * * * * * * * * * * * * * * * * * * * * * * * * * //

solvers
{

    "rho.*"
    {
        solver              PBiCGStab;
        preconditioner      DILU;
        tolerance           1e-6;
        relTol              0.01;
    }

    p_rgh
    {
        solver          PCG;
        preconditioner  DIC;
        tolerance       1e-6;
        relTol          0.01;
    }
    
    p_rghFinal
    {
        $p_rgh;
        tolerance       1e-6;
        relTol          0;
    }
    
    T
    {
        solver          PBiCGStab;
        preconditioner  DILU;
        tolerance       1e-6;
        relTol          0.01;
    }
    
    TFinal
    {
        $T;
        tolerance       1e-6;
        relTol          0;
    }
    
    h
    {
        solver          PBiCGStab;
        preconditioner  DILU;
        tolerance       1e-6;
        relTol          0.01;
    }
    
    hFinal
    {
        $h;
        tolerance       1e-6;
        relTol          0;
    }

    "(U|Yi|k|epsilon)"
    {
        solver          PBiCGStab;
        preconditioner  DILU;
        nSweeps         1;
        tolerance       1e-6;
        relTol          0.01;
    }
    
    "(U|Yi|k|epsilon)Final"
    {
        $U;
        tolerance       1e-6;
        relTol          0;
    }
    
    "G.*"
    {
        $p_rgh;
        tolerance       1e-6;
        relTol          0.1;
    }
    
    "Ii.*"
    {
        solver              GAMG;
        tolerance           1e-5;
        relTol              0;
        smoother            symGaussSeidel;
        maxIter             1;
        nPostSweeps         1;
    }
    
    
}


PIMPLE
{
    pRefPoint		(10 7 1);
    pRefValue   0;
    
    nNonOrthogonalCorrectors 1;
    
    momentumPredictor yes;

    residualControl
    {
        rho             1e-5;
        p               1e-5;
        p_rgh           1e-5;
        U               1e-5;
        h               1e-5;
        T               1e-5;
        G               1e-5;
        air             1e-5;
        CO2             1e-5;

        // possibly check turbulence fields
        "(k|epsilon|omega)" 1e-5;
    }
}


relaxationFactors
{
    fields
    {
        rho             0.2;
        p_rgh           0.2;
        p               0.2;
    }
    equations
    {
        U               0.2;
        h               0.2;
        "(k|epsilon|R)" 0.2;
        T               0.2;
        G               0.2;
        air             0.2;
        CO2             0.2;
    }

}