/*--------------------------------*- C++ -*----------------------------------*\
  =========                 |
  \\      /  F ield         | OpenFOAM: The Open Source CFD Toolbox
   \\    /   O peration     | Website:  https://openfoam.org
    \\  /    A nd           | Version:  10
     \\/     M anipulation  |

Generated by carbonfly
  - Author: Qirui Huang
  - Website: https://github.com/hqrrr/carbonfly
\*---------------------------------------------------------------------------*/

FoamFile
{
    version     2.0;
    format      ascii;
    class       dictionary;
    location    "constant";
    object      physicalProperties;
}
// * * * * * * * * * * * * * * * * * * * * * * * * * * * * * * * * * * * * * //

thermoType
{
    type            heRhoThermo;
    mixture         multiComponentMixture;
    transport       sutherland;
    thermo          hConst;
    equationOfState perfectGas;
    specie          specie;
    energy          sensibleEnthalpy;
}

pRef            100000;

defaultSpecie   air;

species (air CO2);

air
{
    specie
    {
      molWeight       28.9; // g/mol
    }
    thermodynamics
    {
      Cp              1000; // J/(kg.K)
      Hf              0; // J/kg
    }
    transport
    {
      mu              1.81e-05;   // Pa.s = kg/m.s
      Pr              0.71;       // dimensionless
      As              1.4584e-6;  // sutherland coefficient
      Ts              110.33;     // sutherland temperature
    }
}

CO2
{
    specie
    {
      molWeight       44.01;  // g/mol
    }
    thermodynamics
    {
      Cp              844;   // J/(kg.K)
      Hf              0;  // J/kg 
    }
    transport
    {
      mu              1.48e-05; // Pa.s = kg/m.s
      Pr              0.74;     // dimensionless
      As              1.646e-6; // sutherland coefficient
      Ts              244.36;   // sutherland temperature
    }
}

// ************************************************************************* //
